$ WAVEWATCH TESTS
 'GFS wind grid (0.25 degrees)'
$
 1.1 0.0418 3 4 0.5
$
 F T T T T T
$
 3600 1800 1800 30
$
 &SIN4 TAUWSHELTER = 0 /
$
END OF NAMELISTS
$
 'RECT' T 'NONE'
 24 24 
 0.25 0.25 1.
 102. -9.0 1.
 -0.10   2.50  10  -1000.  2  1 '(....)'  'UNIT'  'dummy'
$
  1038240*1
               10          3  1 '(....)'  'PART'  'dummy'
$
 0    0    F
 0    0    F
 0    0
$
 0.    0.    0.    0.       0
$
$ End of ww3_grid.inp